LAMMPS (8 Feb 2019)
# This simulation first equalibrates the system in npt to get zero pressure volume
# and then applies a force in the x direction and computes the resulting
# strain tensor

# ----------------- Initializating the configuration --------------------------

clear
units metal
dimension 3
boundary p p p
atom_style atomic

# --------------------- Create Atom-----------------------
read_data	data.Cu-Ni
  orthogonal box = (-0.02 -0.02 -0.02) to (6.02 6.02 6.02)
  reading atoms ...
  63 atoms
  reading velocities ...
  63 velocities

# ------------ Define Interatomic Potential ----------------

pair_style eam/alloy
pair_coeff * * CuNi.eam.alloy Ni Cu
Reading potential file CuNi.eam.alloy with DATE: 2014-07-11
neighbor .1 bin
neigh_modify delay 10 check yes

# ------------- Define Settings ----------------

compute 	pepa all pe/atom
compute 	eatoms all reduce sum c_pepa

# ---- Minimizin the pe per atom -----

compute 	ens_temp all temp
# Compute the stress tensor for each atom
compute 	ensprs all pressure ens_temp ke pair improper fix #compute id group_id compute_id temp_id keywords...

thermo 		1000
thermo_style	custom step temp pe ke etotal press lx ly lz
timestep 	0.00001

fix 		start all nve
variable 	tcontrol internal 1000.0
fix 		tstat all langevin v_tcontrol 1000.0 1.0 3884739

run 		150000
  update every 1 steps, delay 10 steps, check yes
Step Temp PotEng KinEng TotEng Press Lx Ly Lz
0            0    26532.066            0    26532.066   -88593.858         6.04         6.04         6.04
Averages over the last 76 of 151 rows, steps 75000 to 150000:
Temp PotEng KinEng TotEng Press Lx Ly Lz
415640 963.952 3330.99 4294.94 2.34564e+07 6.04 6.04 6.04
Loop time of 69.4097 on 1 procs for 150000 steps with 63 atoms

unfix 		start
unfix		tstat

thermo  	1000
thermo_style 	custom step temp press pe ke etotal lx ly lz

#dump            1 all custom/gz 1000 dump.atom.gz id type x y z vx vy vz
dump            2 all custom 10000 dump.atom id type x y z vx vy vz
dump 		3 all custom 10000 dump.xyz id x y z

fix		2 all npt temp 1.0 1.0 1.0 iso 0.0 0.0 1.0

run 		1000000
Step Temp Press PotEng KinEng TotEng Lx Ly Lz
150000    216124.83     13281199    572.82482    1732.0523    2304.8771         6.04         6.04         6.04
Averages over the last 501 of 1001 rows, steps 650000 to 1150000:
Temp Press PotEng KinEng TotEng Lx Ly Lz
0.379787 11.273 -231.09 0.00304366 -231.086 9.13031 9.13031 9.13031
Loop time of 128.417 on 1 procs for 1000000 steps with 63 atoms

unfix 		2

thermo 		1000
#thermo_style 	custom step temp press pe ke lx ly lz c_ensprs[1] c_ensprs[2] c_ensprs[3]

#fix		3 all npt temp 1000.0 1000.0 1000.0 x 1000.0 1000.0 1000.0

#run 		150000
