LAMMPS (8 Feb 2019)
# Compute elastic constant tensor for a crystal at finite temperature
#
# WARNING: This script attempts to measure small differences in
# statistical averages generated by finite temperature MD simulations.
# This creates many more opportunities for errors to occur, compared
# to the zero temperature version provided in examples/ELASTIC.
# Hence, it is always a good idea to start with the zero temperature
# calculation, before attempting to use this script.
#
# Written by Aidan Thompson (Sandia, athomps@sandia.gov)
#
#  This script uses the following three include files.
#
#   init.mod      (must be modified for different crystal structures)
# 	       	  Define units, MD parameters, deformation parameters,
#		  and initial configuration of the atoms and simulation cell.
#
#
#   potential.mod    (must be modified for different pair styles)
# 		     Define pair style and other attributes
#		     not stored in restart file
#
#
#   displace.mod    (displace.mod should not need to be modified)
# 		    Perform positive and negative box displacements
# 		    It uses the resultant changes
#		    in stress to compute one
# 		    row of the elastic stiffness tensor
#
#		    Inputs variables:
#		    	   dir = the Voigt deformation component
#		    		    (1,2,3,4,5,6)
#		    Global constants:
#       	    	   up = the deformation magnitude (strain units)
#       		   cfac = conversion from LAMMPS pressure units to
#               	   output units for elastic constants
#
#
#  To run this on a different system, it should only be necessary to
#  modify the files init.mod and potential.mod. In order to calculate
#  the elastic constants correctly, care must be taken to specify
#  the correct units in init.mod (units, cfac and cunits). It is also
#  important to verify that the MD sampling of stress components
#  is generating accurate statistical averages.
#  One indication of this is that the elastic constants are insensitive
#  check for finite size effects.
#

include init.mod
# NOTE: This script can be modified for different atomic structures,
# units, etc. See in.elastic for more info.
#

# Define the finite deformation size. Try several values of this
# variable to verify that results do not depend on it.
variable up equal 2.0e-2

# metal units, elastic constants in GPa
units		metal
variable cfac equal 1.0e-4
variable cunits string GPa

# Define MD parameters
variable nevery equal 10                  # sampling interval
variable nrepeat equal 10                 # number of samples
variable nfreq equal 10*10
variable nthermo equal 100
variable nequil equal 10*100
variable nrun equal 3*100
variable TEMPERATURE equal 2000.0                # temperature of initial sample
variable TIMESTEP equal 0.001             # TIMESTEP
variable kT equal 10			# lammps manual suggests 100 but example set it to 10
variable tdamp equal 10*0.001
variable RANDOM equal 123457                # seed for thermostat

# generate the box and atom positions
dimension 	3
boundary	p p p
atom_style 	atomic
read_data	data.elastic
  triclinic box = (0 0 0) to (28.8 28.8 28.8) with tilt (0 0 0)
  reading atoms ...
  2048 atoms
  reading velocities ...
  2048 velocities

# Compute initial state

include potential.mod
# NOTE: This script can be modified for different pair styles
# See in.elastic for more info.

reset_timestep 0

# Choose potential
pair_style	eam/alloy
pair_coeff 	* * CuNi.eam.alloy Ni Cu
Reading potential file CuNi.eam.alloy with DATE: 2014-07-11

# Setup neighbor style

neighbor	0.5 bin
neigh_modify delay 10 check yes

# Setup output
variable energy equal etotal
variable volume equal vol
variable pxx2 equal "c_thermo_press[1]^2"
fix avp all ave/time 10 10 100 c_thermo_press mode vector
fix avE all ave/time 10 10 100 v_energy mode scalar
fix avv all ave/time 10 10 100 v_volume mode scalar
fix avt all ave/time 10 10 100 c_thermo_temp mode scalar
fix avpxx2 all ave/time 10 10 100 v_pxx2 mode scalar
thermo		100
thermo_style custom step temp f_avt etotal f_avE vol f_avv press f_avp[1] f_avp[2] f_avp[3] f_avp[4] f_avp[5] f_avp[6] f_avpxx2
thermo_modify norm no

# Setup MD

timestep 0.001
fix 4 all nve
fix 5 all langevin 2000 2000 0.01 123457

run 1000
  update every 1 steps, delay 10 steps, check yes
Step Temp f_avt TotEng f_avE Volume f_avv Press f_avp[1] f_avp[2] f_avp[3] f_avp[4] f_avp[5] f_avp[6] f_avpxx2
0            0            0   -7741.9764            0    23887.872            0    1457.5543            0            0            0            0            0            0            0
Averages over the last 6 of 11 rows, steps 500 to 1000:
Temp f_avt TotEng f_avE Volume f_avv Press f_avp[1] f_avp[2] f_avp[3] f_avp[4] f_avp[5] f_avp[6] f_avpxx2
1970.73 1996.27 -6691.16 -6687.75 23887.9 23887.9 135851 134267 135392 136530 6.30098 63.0981 -318.361 1.80322e+10
Loop time of 5.21604 on 1 procs for 1000 steps with 2048 atoms

include potential.mod
# NOTE: This script can be modified for different pair styles
# See in.elastic for more info.

reset_timestep 0

# Choose potential
pair_style	eam/alloy
pair_coeff 	* * CuNi.eam.alloy Ni Cu
Reading potential file CuNi.eam.alloy with DATE: 2014-07-11

# Setup neighbor style

neighbor	0.5 bin
neigh_modify delay 10 check yes

# Setup output
variable energy equal etotal
variable volume equal vol
variable pxx2 equal "c_thermo_press[1]^2"
fix avp all ave/time 10 10 100 c_thermo_press mode vector
fix avE all ave/time 10 10 100 v_energy mode scalar
fix avv all ave/time 10 10 100 v_volume mode scalar
fix avt all ave/time 10 10 100 c_thermo_temp mode scalar
fix avpxx2 all ave/time 10 10 100 v_pxx2 mode scalar
thermo		100
thermo_style custom step temp f_avt etotal f_avE vol f_avv press f_avp[1] f_avp[2] f_avp[3] f_avp[4] f_avp[5] f_avp[6] f_avpxx2
thermo_modify norm no

# Setup MD

timestep 0.001
fix 4 all nve
fix 5 all langevin 2000 2000 0.01 123457

run 300
Step Temp f_avt TotEng f_avE Volume f_avv Press f_avp[1] f_avp[2] f_avp[3] f_avp[4] f_avp[5] f_avp[6] f_avpxx2
0    1998.4843            0   -6678.3317            0    23887.872            0    137357.09            0            0            0            0            0            0            0
Loop time of 1.5702 on 1 procs for 300 steps with 2048 atoms

variable pxx0 equal f_avp[1]
variable pyy0 equal f_avp[2]
variable pzz0 equal f_avp[3]
variable pxy0 equal f_avp[4]
variable pxz0 equal f_avp[5]
variable pyz0 equal f_avp[6]

variable tmp equal lx
variable lx0 equal 28.8
variable tmp equal ly
variable ly0 equal 28.8
variable tmp equal lz
variable lz0 equal 28.8

# These formulas define the derivatives w.r.t. strain components
# Constants uses $, variables use v_
variable d1 equal -(v_pxx1-137925.042048253)/(v_delta/v_len0)*0.0001
variable d2 equal -(v_pyy1-140507.064650599)/(v_delta/v_len0)*0.0001
variable d3 equal -(v_pzz1-143417.871921684)/(v_delta/v_len0)*0.0001
variable d4 equal -(v_pyz1-474.072171156174)/(v_delta/v_len0)*0.0001
variable d5 equal -(v_pxz1--477.654992464044)/(v_delta/v_len0)*0.0001
variable d6 equal -(v_pxy1--1135.26161367485)/(v_delta/v_len0)*0.0001

# Write restart
write_restart restart.equil

# uxx Perturbation

variable dir equal 1
include displace.mod
# NOTE: This script should not need to be
# modified. See in.elastic for more info.
#
# Find which reference length to use

variable len0 equal 28.8

# Reset box and simulation parameters

clear
box tilt large
read_restart restart.equil
  restoring atom style atomic from restart
  triclinic box = (0 0 0) to (28.8 28.8 28.8) with tilt (0 0 0)
  pair style eam/alloy stores no restart info
  2048 atoms
include potential.mod
# NOTE: This script can be modified for different pair styles
# See in.elastic for more info.

reset_timestep 0

# Choose potential
pair_style	eam/alloy
pair_coeff 	* * CuNi.eam.alloy Ni Cu
Reading potential file CuNi.eam.alloy with DATE: 2014-07-11

# Setup neighbor style

neighbor	0.5 bin
neigh_modify delay 10 check yes

# Setup output
variable energy equal etotal
variable volume equal vol
variable pxx2 equal "c_thermo_press[1]^2"
fix avp all ave/time 10 10 100 c_thermo_press mode vector
fix avE all ave/time 10 10 100 v_energy mode scalar
fix avv all ave/time 10 10 100 v_volume mode scalar
fix avt all
