LAMMPS (8 Feb 2019)
variable 	TEMPERATURE equal 300
variable 	RANDOM equal 387623
variable	TIMESTEP equal 0.001
variable 	a equal 3.6 	# lattice spacing (A)
variable 	SYSTEMSIZE equal 10
variable	MINIMIZE equal 0
variable	RUNTIME equal 100000

units		metal

# GENERATE ATOMS, POSITIONS, AND VELOCITIES

dimension 	3
boundary	p p p
atom_style 	atomic

region		wholesim block 0 $(2*v_SYSTEMSIZE) 0 $(v_SYSTEMSIZE) 0 $(v_SYSTEMSIZE)
region		wholesim block 0 20 0 $(v_SYSTEMSIZE) 0 $(v_SYSTEMSIZE)
region		wholesim block 0 20 0 10 0 $(v_SYSTEMSIZE)
region		wholesim block 0 20 0 10 0 10
region 		straight block 0 10 0 10 0 10
region 		tilt block 10 $(2*v_SYSTEMSIZE) 0 $(v_SYSTEMSIZE) 0 $(2*v_SYSTEMSIZE)
region 		tilt block 10 20 0 $(v_SYSTEMSIZE) 0 $(2*v_SYSTEMSIZE)
region 		tilt block 10 20 0 10 0 $(2*v_SYSTEMSIZE)
region 		tilt block 10 20 0 10 0 20
create_box 	2 wholesim
Created orthogonal box = (0 0 0) to (20 10 10)

lattice 	fcc 3.6 orient x 1 0 0 orient y 0 1 0 orient z 0 0 1
Lattice spacing in x,y,z = 3.6 3.6 3.6
create_atoms	1 region straight
Created 108 atoms
  Time spent = 0.000367188 secs

lattice 	fcc 3.6 orient x 1 1 0 orient y -1 1 0 orient z 0 0 1
Lattice spacing in x,y,z = 5.09117 5.09117 3.6
create_atoms 	2 region tilt
Created 96 atoms
  Time spent = 6.1168e-05 secs

group		straight region straight
108 atoms in group straight
group		tilt region tilt
96 atoms in group tilt

pair_style	eam/alloy
pair_coeff	* * CuNi.eam.alloy Ni Cu
Reading potential file CuNi.eam.alloy with DATE: 2014-07-11

delete_atoms	overlap $(v_a/8) straight tilt
delete_atoms	overlap 0.4500000000000000111 straight tilt
  update every 1 steps, delay 10 steps, check yes
Deleted 0 atoms, new total = 204

velocity 	all create 300 387623

neighbor	0.3 bin
timestep	0.001
reset_timestep	0

thermo 		100
thermo_style	custom step etotal vol press temp enthalpy

jump in.grain start
reset_timestep	0

compute 	cna all cna/atom $(0.8536*v_a)
compute 	cna all cna/atom 3.0729600000000001359
compute 	centro all centro/atom fcc

thermo 		100
thermo_style	custom step etotal vol press temp enthalpy
dump 		1 all xyz 100 dump.xyz
dump		2 all custom 100 dump.bdry x y z c_cna c_centro

fix 		1 all nve
fix 		2 all langevin 300 300 0.10000000000000000555 387623 zero yes
run 		100000
  update every 1 steps, delay 10 steps, check yes
Step TotEng Volume Press Temp Enthalpy
0    -112.0475         2000    904975.42          300    1017.6351
Averages over the last 501 of 1001 rows, steps 50000 to 100000:
TotEng Volume Press Temp Enthalpy
-759.729 2000 331259 299.612 -346.218
Loop time of 59.9206 on 1 procs for 100000 steps with 204 atoms
