LAMMPS (8 Feb 2019)
# First try at a a lammps sim

# ----------------- Initializating the configuration --------------------------

clear
units metal
dimension 3
boundary p p p
atom_style atomic
#atom_modify

# --------------------- Create Atom-----------------------
read_data	data.Cu-Ni
  orthogonal box = (-0.02 -0.02 -0.02) to (41.42 41.42 41.42)
  reading atoms ...
  3430 atoms
  reading velocities ...
  3430 velocities

# ------------ Define Interatomic Potential ----------------

pair_style eam/alloy
pair_coeff * * CuNi.eam.alloy Ni Cu
Reading potential file CuNi.eam.alloy with DATE: 2014-07-11
neighbor .05 bin
neigh_modify delay 10 check yes

# ------------- Define Settings ----------------

compute pepa all pe/atom

# ------------------ Run Minimization -----------

reset_timestep 0
thermo 500
thermo_style    custom step temp pe ke etotal press lx ly lz
timestep .0001

dump           	1 all custom 500 dump.atom id type x y z c_pepa
fix 		1 all nvt temp 2000.0 2000.0 1.0
run 		100000
  update every 1 steps, delay 10 steps, check yes
Step Temp PotEng KinEng TotEng Press Lx Ly Lz
0    858.21016    218359.71     380.3871     218740.1   -455.29193        41.44        41.44        41.44
Averages over the last 101 of 201 rows, steps 50000 to 100000:
Temp PotEng KinEng TotEng Press Lx Ly Lz
1902.94 -10166.1 843.448 -9322.64 -16298.4 41.44 41.44 41.44
Loop time of 472.668 on 1 procs for 100000 steps with 3430 atoms

unfix 		1

compute 	MSD all msd com yes
thermo 		500
thermo_style 	custom step temp pe etotal press lx ly lz c_MSD[4]

fix 		2 all npt temp 2000.0 2000.0 1.0 iso 0.0 0.0 1.0

run 		1000000
Step Temp PotEng TotEng Press Lx Ly Lz c_MSD[4]
100000    2244.5013   -9968.6649   -8973.8277   -16838.185        41.44        41.44        41.44 1.6332208e-27
Averages over the last 1001 of 2001 rows, steps 600000 to 1100000:
Temp PotEng TotEng Press Lx Ly Lz c_MSD[4]
1998.88 -10619.5 -9733.56 19.2388 36.4401 36.4401 36.4401 412.37
Loop time of 5814.31 on 1 procs for 1000000 steps with 3430 atoms
