units metal
dimension 3
boundary p p p
atom_style atomic
#atom_modify map array

#----------------- CREATE ATOMS ------------------------
#region simR block 0 8.092 0 4.046 0 4.046 #use change_box to reshape sim box
#region solidBase block 0 4.046 0 4.046 0 4.046 #create_box reshapes sim box to fit new atoms
#create_box 2 solidBase
read_data data.atoms group solAtoms
  triclinic box = (0 0 0) to (18.15 18.15 18.15) with tilt (0 0 0)
  reading atoms ...
  500 atoms
#read_data atom.data add append
#group baseAtoms region solidBase

# --------- DEFINE INTERATOMIC POTENTIAL ---------

pair_style eam/alloy
pair_coeff * * CuNi.eam.alloy Ni Cu
Reading potential file CuNi.eam.alloy with DATE: 2014-07-11
neighbor .05 bin
neigh_modify delay 10 check yes

# -------------- DEFFINE SETTINGS ----------------

#COMPUTES (do in Pylammps)

#---------------------- RUN ------------------------

#MINIMIZATION/RUN (do in pylammps)

info system
region solBase block 0 3.63 0 3.63 0 3.63 side in
group solAtoms region solBase
500 atoms in group solAtoms
change_box all x final -7.26 72.6 y final 0.0 18.15 z final 0.0 18.15
  triclinic box = (-7.26 0 0) to (72.6 18.15 18.15) with tilt (0 0 0)
  triclinic box = (-7.26 0 0) to (72.6 18.15 18.15) with tilt (0 0 0)
  triclinic box = (-7.26 0 0) to (72.6 18.15 18.15) with tilt (0 0 0)
region liquidBox block 25.41 43.56 0 18.15 0 18.15 side in
create_atoms 2 random 500 1 liquidBox
Created 500 atoms
group liquidAtoms region liquidBox
500 atoms in group liquidAtoms
reset_timestep 0
timestep 0.001
thermo 10
thermo_style custom step atoms temp press etotal
dump 2 all custom 10 pos.XYZ id x y z
minimize 1e-7 1e-7 10000 10000
  update every 1 steps, delay 0 steps, check yes
Step Atoms Temp Press TotEng
0     1000            0    483301.76    6735.7472
Loop time of 2.67629 on 1 procs for 343 steps with 1000 atoms

Minimization stats:
  Stopping criterion = energy tolerance
  Energy initial, next-to-last, final =
  Force two-norm initial, final = 2888.97 0.0631651
  Force max component initial, final = 1036 0.0180035
  Final line search alpha, max atom move = 1 0.0180035
  Iterations, force evaluations = 343 591

info groups
fix solTemp solAtoms nvt temp 600 600 0.1
fix liqTemp liquidAtoms nvt temp 3000 3000 0.1
run 400
Step Atoms Temp Press TotEng
343     1000            0   -12650.552   -3593.6096
Loop time of 0.737464 on 1 procs for 400 steps with 1000 atoms

minimize 1e-4 1e-4 10000 10000
Step Atoms Temp Press TotEng
743     1000  0.064036111   -12657.913   -3593.6022
Loop time of 0.006508 on 1 procs for 1 steps with 1000 atoms

Minimization stats:
  Stopping criterion = energy tolerance
  Energy initial, next-to-last, final =
  Force two-norm initial, final = 0.0606767 0.084121
  Force max component initial, final = 0.0106349 0.0317074
  Final line search alpha, max atom move = 1 0.0317074
  Iterations, force evaluations = 1 2

displace_atoms liquidAtoms move -0.363 0 0
run 20
Step Atoms Temp Press TotEng
744     1000  0.064036111   -12656.715   -3593.6025
Loop time of 0.037054 on 1 procs for 20 steps with 1000 atoms

minimize 1e-4 1e-4 10000 10000
Step Atoms Temp Press TotEng
764     1000  0.071165601   -12655.104   -3593.6014
Loop time of 0.007077 on 1 procs for 1 steps with 1000 atoms

Minimization stats:
  Stopping criterion = energy tolerance
  Energy initial, next-to-last, final =
  Force two-norm initial, final = 0.0659243 0.0618096
  Force max component initial, final = 0.0175523 0.0204201
  Final line search alpha, max atom move = 1 0.0204201
  Iterations, force evaluations = 1 2

displace_atoms liquidAtoms move -0.363 0 0
run 20
Step Atoms Temp Press TotEng
765     1000  0.071165601   -12654.896   -3593.6016
Loop time of 0.040296 on 1 procs for 20 steps with 1000 atoms

minimize 1e-4 1e-4 10000 10000
Step Atoms Temp Press TotEng
785     1000  0.077459681   -12652.886   -3593.6003
Loop time of 0.013886 on 1 procs for 1 steps with 1000 atoms

Minimization stats:
  Stopping criterion = energy tolerance
  Energy initial, next-to-last, final =
  Force two-norm initial, final = 0.089519 0.0536556
  Force max component initial, final = 0.0337514 0.0139969
  Final line search alpha, max atom move = 1 0.0139969
  Iterations, force evaluations = 1 2

displace_atoms liquidAtoms move -0.363 0 0
run 20
Step Atoms Temp Press TotEng
786     1000  0.077459681   -12652.586   -3593.6005
Loop time of 0.052993 on 1 procs for 20 steps with 1000 atoms

minimize 1e-4 1e-4 10000 10000
Step Atoms Temp Press TotEng
806     1000  0.083987977   -12650.159   -3593.5991
Loop time of 0.014921 on 1 procs for 1 steps with 1000 atoms

Minimization stats:
  Stopping criterion = energy tolerance
  Energy initial, next-to-last, final =
  Force two-norm initial, final = 0.0856499 0.0593736
  Force max component initial, final = 0.0304758 0.0164259
  Final line search alpha, max atom move = 1 0.0164259
  Iterations, force evaluations = 1 2

displace_atoms liquidAtoms move -0.363 0 0
run 20
Step Atoms Temp Press TotEng
807     1000  0.083987977   -12649.954   -3593.5994
Loop time of 0.051301 on 1 procs for 20 steps with 1000 atoms

minimize 1e-4 1e-4 10000 10000
Step Atoms Temp Press TotEng
827     1000  0.091544654   -12647.172   -3593.5978
Loop time of 0.011192 on 1 procs for 1 steps with 1000 atoms

Minimization stats:
  Stopping criterion = energy tolerance
  Energy initial, next-to-last, final =
  Force two-norm initial, final = 0.0710744 0.0728031
  Force max component initial, final = 0.0215159 0.0249969
  Final line search alpha, max atom move = 1 0.0249969
  Iterations, force evaluations = 1 2

displace_atoms liquidAtoms move -0.363 0 0
run 20
Step Atoms Temp Press TotEng
828     1000  0.091544654   -12646.931   -3593.5981
Loop time of 0.033722 on 1 procs for 20 steps with 1000 atoms

minimize 1e-4 1e-4 10000 10000
Step Atoms Temp Press TotEng
848     1000   0.10038022   -12643.802   -3593.5964
Loop time of 0.006613 on 1 procs for 1 steps with 1000 atoms

Minimization stats:
  Stopping criterion = energy tolerance
  Energy initial, next-to-last, final =
  Force two-norm initial, final = 0.0661058 0.0838801
  Force max component initial, final = 0.0174591 0.0308454
  Final line search alpha, max atom move = 1 0.0308454
  Iterations, force evaluations = 1 2

displace_atoms liquidAtoms move -0.363 0 0
run 20
Step Atoms Temp Press TotEng
849     1000   0.10038022   -12643.547   -3593.5967
Loop time of 0.033621 on 1 procs for 20 steps with 1000 atoms

minimize 1e-4 1e-4 10000 10000
Step Atoms Temp Press TotEng
869     1000   0.11050465   -12640.008   -3593.5948
Loop time of 0.010594 on 1 procs for 1 steps with 1000 atoms

Minimization stats:
  Stopping criterion = energy tolerance
  Energy initial, next-to-last, final =
  Force two-norm initial, final = 0.0736061 0.0753635
  Force max component initial, final = 0.0229944 0.0253963
  Final line search alpha, max atom move = 1 0.0253963
  Iterations, force evaluations = 1 2

displace_atoms liquidAtoms move -0.363 0 0
run 20
Step Atoms Temp Press TotEng
870     1000   0.11050465   -12640.589    -3593.595
Loop time of 0.033269 on 1 procs for 20 steps with 1000 atoms

minimize 1e-4 1e-4 10000 10000
Step Atoms Temp Press TotEng
890     1000   0.12120546    -12636.81   -3593.5929
Loop time of 0.010481 on 1 procs for 1 steps with 1000 atoms

Minimization stats:
  Stopping criterion = energy tolerance
  Energy initial, next-to-last, final =
  Force two-norm initial, final = 0.0926556 0.0679145
  Force max component initial, final = 0.0335604 0.0187183
  Final line search alpha, max atom move = 1 0.0187183
  Iterations, force evaluations = 1 2

displace_atoms liquidAtoms move -0.363 0 0
run 20
Step Atoms Temp Press TotEng
891     1000   0.12120546   -12646.687   -3593.6082
Loop time of 0.03349 on 1 procs for 20 steps with 1000 atoms

minimize 1e-4 1e-4 10000 10000
Step Atoms Temp Press TotEng
911     1000   0.13460493   -12644.973   -3593.6059
Loop time of 0.010397 on 1 procs for 1 steps with 1000 atoms

Minimization stats:
  Stopping criterion = energy tolerance
  Energy initial, next-to-last, final =
  Force two-norm initial, final = 0.118609 0.116752
  Force max component initial, final = 0.0609477 0.0405698
  Final line search alpha, max atom move = 1 0.0405698
  Iterations, force evaluations = 1 2

displace_atoms liquidAtoms move -0.363 0 0
run 20
Step Atoms Temp Press TotEng
912     1000   0.13460493   -12678.937   -3593.6733
Loop time of 0.042369 on 1 procs for 20 steps with 1000 atoms

minimize 1e-4 1e-4 10000 10000
Step Atoms Temp Press TotEng
932     1000    0.1582871   -12686.027   -3593.6707
Loop time of 0.014773 on 1 procs for 1 steps with 1000 atoms

Minimization stats:
  Stopping criterion = energy tolerance
  Energy initial, next-to-last, final =
  Force two-norm initial, final = 0.144415 0.228036
  Force max component initial, final = 0.0520292 0.0945744
  Final line search alpha, max atom move = 1 0.0945744
  Iterations, force evaluations = 1 2

displace_atoms liquidAtoms move -0.363 0 0
run 20
Step Atoms Temp Press TotEng
933     1000    0.1582871   -12789.348   -3593.8747
Loop time of 0.047327 on 1 procs for 20 steps with 1000 atoms

minimize 1e-4 1e-4 10000 10000
Step Atoms Temp Press TotEng
953     1000   0.21154496   -12819.977   -3593.8713
Loop time of 0.013426 on 1 procs for 1 steps with 1000 atoms

Minimization stats:
  Stopping criterion = energy tolerance
  Energy initial, next-to-last, final =
  Force two-norm initial, final = 0.216448 0.409039
  Force max component initial, final = 0.0577605 0.172229
  Final line search alpha, max atom move = 1 0.172229
  Iterations, force evaluations = 1 2

displace_atoms liquidAtoms move -0.363 0 0
run 20
Step Atoms Temp Press TotEng
954     1000   0.21154496   -13123.763   -3594.4268
Loop time of 0.047444 on 1 procs for 20 steps with 1000 atoms

minimize 1e-4 1e-4 10000 10000
Step Atoms Temp Press TotEng
974     1000   0.36255127   -13207.681   -3594.4216
Loop time of 0.014385 on 1 procs for 1 steps with 1000 atoms

Minimization stats:
  Stopping criterion = energy tolerance
  Energy initial, next-to-last, final =
  Force two-norm initial, final = 0.407522 0.736568
  Force max component initial, final = 0.0882885 0.257896
  Final line search alpha, max atom move = 1 0.257896
  Iterations, force evaluations = 1 2

displace_atoms liquidAtoms move -0.363 0 0
run 20
Step Atoms Temp Press TotEng
975     1000   0.36255127   -13684.721   -3595.6289
Loop time of 0.051834 on 1 procs for 20 steps with 1000 atoms

minimize 1e-4 1e-4 10000 10000
Step Atoms Temp Press TotEng
995     1000   0.80451417   -13868.002   -3595.6183
Loop time of 0.01329 on 1 procs for 1 steps with 1000 atoms

Minimization stats:
  Stopping criterion = energy tolerance
  Energy initial, next-to-last, final =
  Force two-norm initial, final = 0.692335 1.15506
  Force max component initial, final = 0.124799 0.461121
  Final line search alpha, max atom move = 0.801286 0.36949
  Iterations, force evaluations = 1 2

displace_atoms liquidAtoms move -0.363 0 0
run 20
Step Atoms Temp Press TotEng
996     1000   0.80451417   -14555.453   -3597.8247
Loop time of 0.046614 on 1 procs for 20 steps with 1000 atoms

minimize 1e-4 1e-4 10000 10000
Step Atoms Temp Press TotEng
1016     1000    2.0176339   -14911.569   -3597.7989
Loop time of 0.010547 on 1 procs for 1 steps with 1000 atoms

Minimization stats:
  Stopping criterion = energy tolerance
  Energy initial, next-to-last, final =
  Force two-norm initial, final = 1.13745 1.70533
  Force max component initial, final = 0.318948 0.510539
  Final line search alpha, max atom move = 0.313531 0.16007
  Iterations, force evaluations = 1 2

displace_atoms liquidAtoms move -0.363 0 0
run 20
Step Atoms Temp Press TotEng
1017     1000    2.0176339   -15795.456   -3601.5312
Loop time of 0.03828 on 1 procs for 20 steps with 1000 atoms

minimize 1e-4 1e-4 10000 10000
Step Atoms Temp Press TotEng
1037     1000    5.0742952   -16401.837    -3601.466
Loop time of 0.010641 on 1 procs for 1 steps with 1000 atoms

Minimization stats:
  Stopping criterion = energy tolerance
  Energy initial, next-to-last, final =
  Force two-norm initial, final = 1.73136 2.6736
  Force max component initial, final = 0.377466 1.08745
  Final line search alpha, max atom move = 0.264924 0.288091
  Iterations, force evaluations = 1 2

displace_atoms liquidAtoms move -0.363 0 0
run 20
Step Atoms Temp Press TotEng
1038     1000    5.0742952   -17478.307   -3607.2851
Loop time of 0.03783 on 1 procs for 20 steps with 1000 atoms

minimize 1e-4 1e-4 10000 10000
Step Atoms Temp Press TotEng
1058     1000    12.375504   -18441.921   -3607.1234
Loop time of 0.183067 on 1 procs for 40 steps with 1000 atoms

Minimization stats:
  Stopping criterion = energy tolerance
  Energy initial, next-to-last, final =
  Force two-norm initial, final = 2.42972 1.88593
  Force max component initial, final = 0.59325 0.390325
  Final line search alpha, max atom move = 0.294008 0.114759
  Iterations, force evaluations = 40 47

displace_atoms liquidAtoms move -0.363 0 0
run 20
Step Atoms Temp Press TotEng
1098     1000    12.375504   -21199.787   -3654.3709
Loop time of 0.039047 on 1 procs for 20 steps with 1000 atoms

minimize 1e-4 1e-4 10000 10000
Step Atoms Temp Press TotEng
1118     1000    62.565247   -21789.159   -3653.9345
Loop time of 0.075921 on 1 procs for 12 steps with 1000 atoms

Minimization stats:
  Stopping criterion = energy tolerance
  Energy initial, next-to-last, final =
  Force two-norm initial, final = 13.2722 1.68406
  Force max component initial, final = 2.08112 0.203272
  Final line search alpha, max atom move = 0.290744 0.0591002
  Iterations, force evaluations = 12 19

displace_atoms liquidAtoms move -0.363 0 0
run 20
Step Atoms Temp Press TotEng
1130     1000    62.565247   -8586.3523   -3651.9894
Loop time of 0.039273 on 1 procs for 20 steps with 1000 atoms

minimize 1e-4 1e-4 10000 10000
Step Atoms Temp Press TotEng
1150     1000    165.46534   -9428.1211    -3649.485
Loop time of 0.029296 on 1 procs for 4 steps with 1000 atoms

Minimization stats:
  Stopping criterion = energy tolerance
  Energy initial, next-to-last, final =
  Force two-norm initial, final = 10.5223 2.05818
  Force max component initial, final = 1.5746 0.635004
  Final line search alpha, max atom move = 0.219454 0.139354
  Iterations, force evaluations = 4 8

displace_atoms liquidAtoms move -0.363 0 0
run 20
Step Atoms Temp Press TotEng
1154     1000    165.46534   -968.29666   -3635.8664
Loop time of 0.040424 on 1 procs for 20 steps with 1000 atoms

minimize 1e-4 1e-4 10000 10000
Step Atoms Temp Press TotEng
1174     1000    259.87734   -1088.9625   -3631.2495
Loop time of 0.044979 on 1 procs for 7 steps with 1000 atoms

Minimization stats:
  Stopping criterion = energy tolerance
  Energy initial, next-to-last, final =
  Force two-norm initial, final = 17.5113 1.74629
  Force max component initial, final = 2.22963 0.227005
  Final line search alpha, max atom move = 0.197956 0.0449371
  Iterations, force evaluations = 7 11

displace_atoms liquidAtoms move -0.363 0 0
run 20
Step Atoms Temp Press TotEng
1181     1000    259.87734    7446.2941   -3622.8097
Loop time of 0.040754 on 1 procs for 20 steps with 1000 atoms

minimize 1e-4 1e-4 10000 10000
Loop time of 0.076155 on 1 procs for 12 steps with 1000 atoms

Minimization stats:
  Stopping criterion = energy tolerance
  Energy initial, next-to-last, final =
  Force two-norm initial, final = 19.1228 1.96038
  Force max component initial, final = 2.58628 0.498514
  Final line search alpha, max atom move = 0.140485 0.0700338
  Iterations, force evaluations = 12 20

displace_atoms liquidAtoms move -0.363 0 0
run 20
Loop time of 0.040989 on 1 procs for 20 steps with 1000 atoms

minimize 1e-4 1e-4 10000 10000
Loop time of 0.046592 on 1 procs for 6 steps with 1000 atoms

Minimization stats:
  Stopping criterion = energy tolerance
  Energy initial, next-to-last, final =
  Force two-norm initial, final = 18.8435 2.05485
  Force max component initial, final = 2.50902 0.441671
  Final line search alpha, max atom move = 0.220481 0.0973801
  Iterations, force evaluations = 6 11

displace_atoms liquidAtoms move -0.363 0 0
run 20
Loop time of 0.040928 on 1 procs for 20 steps with 1000 atoms

minimize 1e-2 1e-2 10000 10000
Loop time of 0.007001 on 1 procs for 1 steps with 1000 atoms

Minimization stats:
  Stopping criterion = energy tolerance
  Energy initial, next-to-last, final =
  Force two-norm initial, final = 20.5174 9.83578
  Force max component initial, final = 2.82664 1.25906
  Final line search alpha, max atom move = 0.0353777 0.0445428
  Iterations, force evaluations = 1 1

fix 1 all nve
run 500
Loop time of 1.061 on 1 procs for 500 steps with 1000 atoms

run 10000
Loop time of 79.0606 on 1 procs for 10000 steps with 1000 atoms

info system
