units metal
dimension 3
boundary p p p
atom_style atomic
#atom_modify map array

#----------------- CREATE ATOMS ------------------------
#region simR block 0 8.092 0 4.046 0 4.046 #use change_box to reshape sim box
#region solidBase block 0 4.046 0 4.046 0 4.046 #create_box reshapes sim box to fit new atoms
#create_box 2 solidBase
read_data data.conc1 group conc1Atoms
  triclinic box = (0 0 0) to (21.78 21.78 21.78) with tilt (0 0 0)
  reading atoms ...
  864 atoms
#read_data data.conc3 add append group conc3Atoms
#read_data atom.data add append
#group baseAtoms region solidBase

# --------- DEFINE INTERATOMIC POTENTIAL ---------

pair_style eam/alloy
pair_coeff * * CuNi.eam.alloy Ni Cu
Reading potential file CuNi.eam.alloy with DATE: 2014-07-11
neighbor .05 bin
neigh_modify delay 10 check yes

# -------------- DEFFINE SETTINGS ----------------

#COMPUTES (do in Pylammps)

#---------------------- RUN ------------------------

#MINIMIZATION/RUN (do in pylammps)

info system
read_data data.conc9 add append shift 21.78 0 0 group conc9Atoms
  triclinic box = (0 0 0) to (43.56 21.78 21.78) with tilt (0 0 0)
  reading atoms ...
  864 atoms
reset_timestep 0
timestep 0.001
thermo 100
thermo_style custom step atoms temp press etotal
dump 2 all custom 10 pos.XYZ id type x y z
info groups
fix 0 all nve
fix 1 all langevin 2000 2000 0.1 761 zero yes
run 10000
  update every 1 steps, delay 10 steps, check yes
Step Atoms Temp Press TotEng
0     1728            0   -67971.683    -6839.253
Averages over the last 51 of 101 rows, steps 5000 to 10000:
Atoms Temp Press TotEng
1728 1986.56 79416.9 -5942.26
Loop time of 37.0554 on 1 procs for 10000 steps with 1728 atoms

info system
