LAMMPS (8 Feb 2019)
# First try at a lammps sim

# ----------------- Initializating the configuration --------------------------

clear
units metal
dimension 3
boundary p p p
atom_style atomic

# --------------------- Create Atom-----------------------
read_data	data.CuNi
  orthogonal box = (-0.02 -0.02 -0.02) to (41.42 41.42 41.42)
  reading atoms ...
  3430 atoms
  reading velocities ...
  3430 velocities

# ------------ Define Interatomic Potential ----------------

pair_style eam/alloy
pair_coeff * * CuNi.eam.alloy Ni Cu
Reading potential file CuNi.eam.alloy with DATE: 2014-07-11
neighbor .05 bin
neigh_modify delay 10 check yes

# ------------- Define Settings ----------------

reset_timestep 0
thermo 500
thermo_style    custom step temp pe etotal press lx ly lz
timestep .0001

# Make variables which I can use to check the pressure and temperature.
compute 	my_temp all temp
compute 	mypress all pressure my_temp
variable	glpress equal "c_mypress"

# minimize the energy of the initial configuration using conjugate gradient algorithm
# ------------------ Run Minimization -----------

print 		'Minimizing the Energy'
Minimizing the Energy

min_style 	cg
minimize 	1.0e-4 1.0e-6 100 100000
  update every 1 steps, delay 0 steps, check yes
Step Temp PotEng TotEng Press Lx Ly Lz
0            0     218107.9     218107.9   -4520.1322        41.44        41.44        41.44
Loop time of 0.735736 on 1 procs for 100 steps with 3430 atoms

Minimization stats:
  Stopping criterion = max iterations
  Energy initial, next-to-last, final =
  Force two-norm initial, final = 42355 10.5511
  Force max component initial, final = 3821.26 1.00195
  Final line search alpha, max atom move = 0.131544 0.131801
  Iterations, force evaluations = 100 100

# Set the ensemble and make variables which compute averages in time

fix 		1 all nvt temp 1.0 1.0 1.0

fix 		avepress all ave/time 1 100 100 v_glpress mode scalar ave one start 1000 #file ave.press
variable	presssq equal "v_glpress * v_glpress"
fix		avepresssq all ave/time 1 100 100 v_presssq mode scalar ave one start 1000 #file ave.presssq
variable 	variance equal  "f_avepresssq - f_avepress*f_avepress"

# Do a short run to have data to average.

run 2000
Step Temp PotEng TotEng Press Lx Ly Lz
100            0   -10114.393   -10114.393   -70756.083        41.44        41.44        41.44
Loop time of 8.37367 on 1 procs for 2000 steps with 3430 atoms

thermo 		500
thermo_style	custom step temp pe etotal press lx ly lz v_variance

# Begin lopping until the variance in the pressure is below a given value

variable 	loopnum equal 1

label 		loop
run 2000
Step Temp PotEng TotEng Press Lx Ly Lz v_variance
2100    309.53321   -10314.918   -10177.722   -46758.098        41.44        41.44        41.44    256250.24
Loop time of 8.85284 on 1 procs for 2000 steps with 3430 atoms

jump SELF loop
run 2000
Step Temp PotEng TotEng Press Lx Ly Lz v_variance
4100    265.92325   -10501.367   -10383.501   -28936.038        41.44        41.44        41.44    38831.861
Loop time of 9.21056 on 1 procs for 2000 steps with 3430 atoms

jump SELF loop
run 2000
Step Temp PotEng TotEng Press Lx Ly Lz v_variance
6100    180.07048    -10617.24   -10537.426   -22885.076        41.44        41.44        41.44    348.71536
Loop time of 9.26304 on 1 procs for 2000 steps with 3430 atoms

jump SELF loop
run 2000
Step Temp PotEng TotEng Press Lx Ly Lz v_variance
8100    123.90208   -10691.974   -10637.056   -22482.056        41.44        41.44        41.44     312.3483
Loop time of 9.24355 on 1 procs for 2000 steps with 3430 atoms

jump SELF loop
run 2000
Step Temp PotEng TotEng Press Lx Ly Lz v_variance
10100    90.310051   -10738.478   -10698.449   -22592.473        41.44        41.44        41.44    244.48897
Loop time of 9.15977 on 1 procs for 2000 steps with 3430 atoms

jump SELF loop
run 2000
Step Temp PotEng TotEng Press Lx Ly Lz v_variance
12100    60.670804   -10764.166   -10737.275   -22059.324        41.44        41.44        41.44    364.99332
Loop time of 9.21447 on 1 procs for 2000 steps with 3430 atoms

jump SELF loop
run 2000
Step Temp PotEng TotEng Press Lx Ly Lz v_variance
14100    46.323511   -10783.925   -10763.393   -22521.109        41.44        41.44        41.44    616.50387
Loop time of 9.08415 on 1 procs for 2000 steps with 3430 atoms

jump SELF loop
print 'continue'
continue
#"run 		2000" 					&	# Single quotes used where quotes are normally needed

unfix 		1

dump           	1 all custom 500 dump.atom id type x y z

# Begin computing the mean square displacement and switch to npt ensemble

compute 	MSD all msd com yes
thermo 		500
thermo_style 	custom step temp pe etotal press lx ly lz c_MSD[4]

fix 		2 all npt temp 1.0 1.0 1.0 iso 0.0 0.0 1.0

run 		10000
Step Temp PotEng TotEng Press Lx Ly Lz c_MSD[4]
16100    34.707932   -10796.681   -10781.298   -22756.968        41.44        41.44        41.44 5.0487098e-29
Averages over the last 11 of 22 rows, steps 21500 to 26100:
Temp PotEng TotEng Press Lx Ly Lz c_MSD[4]
71.6545 -10928.6 -10896.8 -11.3899 38.7205 38.7205 38.7205 3.24701
Loop time of 49.8055 on 1 procs for 10000 steps with 3430 atoms

print		'All Done!'
All Done!
