units 		metal
dimension 	3
boundary 	p p p
atom_style 	atomic

#--------------Create Atom----------------------------

read_data	data.CuNi2
  orthogonal box = (-0.02 -0.02 -0.02) to (4.62 4.62 4.62)
  reading atoms ...
  14 atoms
  reading velocities ...
  14 velocities

#---------------Define Interatomic Potential----------

pair_style eam/alloy
pair_coeff * * CuNi.eam.alloy Ni Cu
Reading potential file CuNi.eam.alloy with DATE: 2014-07-11
neighbor .05 bin
neigh_modify delay 10 check yes

#---------------Define Settings--------------

#---------------Specify Volume------------------------

change_box all x scale 1.02 y scale 1.02 z scale 1.02
  orthogonal box = (-0.0664 -0.02 -0.02) to (4.6664 4.62 4.62)
  orthogonal box = (-0.0664 -0.0664 -0.02) to (4.6664 4.6664 4.62)
  orthogonal box = (-0.0664 -0.0664 -0.0664) to (4.6664 4.6664 4.6664)

#---------------Run Minimization----------------------

reset_timestep 0
timestep 0.0001
thermo          100
thermo_style    custom step temp pe etotal press lx ly lz

min_style cg # use conjugate gradient method
minimize 1.0e-4 1.0e-6 100 100000
  update every 1 steps, delay 0 steps, check yes
Step Temp PotEng TotEng Press Lx Ly Lz
0            0    10733.144    10733.144     24246882       4.7328       4.7328       4.7328
Loop time of 0.00985625 on 1 procs for 73 steps with 14 atoms

Minimization stats:
  Stopping criterion = energy tolerance
  Energy initial, next-to-last, final =
  Force two-norm initial, final = 14444.5 0.236095
  Force max component initial, final = 3473.21 0.0746952
  Final line search alpha, max atom move = 0.625372 0.0467123
  Iterations, force evaluations = 73 125

reset_timestep 0

#------ Make variables which I can use to check the pressure and temperature--------
compute         my_temp all temp
compute         mypress all pressure my_temp
variable        glpress equal "c_mypress"

fix             avepress all ave/time 1 100 100 c_mypress mode scalar ave one start 1000 #file ave.press
variable        presssq equal "v_glpress * v_glpress"
fix             avepresssq all ave/time 1 100 100 v_presssq mode scalar ave one start 1000 #file ave.presssq
variable        variance equal  "f_avepresssq - f_avepress*f_avepress"

#---------------SPECIFYING ENSEMBLE----------------------
fix 1 all nvt temp 1000 1000 1.0

#----------------Run Simulation------------------------
# Do a short run to have data to average.
thermo          100
thermo_style    custom step temp pe etotal press lx ly lz v_variance

run 4000
Step Temp PotEng TotEng Press Lx Ly Lz v_variance
0            0   -23.344828   -23.344828    1755327.7       4.7328       4.7328       4.7328            0
Averages over the last 21 of 41 rows, steps 2000 to 4000:
Temp PotEng TotEng Press Lx Ly Lz v_variance
0.797494 -23.346 -23.3447 1.75564e+06 4.7328 4.7328 4.7328 5133.47
Loop time of 0.217525 on 1 procs for 4000 steps with 14 atoms

# Begin lopping until the variance in the pressure is below a given value

variable        loopNum loop 1000

label           loop
print 'continue'
continue

unfix		 avepress
unfix		 avepresssq
thermo 100
thermo_style custom step vol lx ly lz press
reset_timestep 0
shell echo 4 > loopNum2.txt
run 		500000
Step Volume Lx Ly Lz Press
0    106.01186       4.7328       4.7328       4.7328    1755807.5
Averages over the last 2501 of 5001 rows, steps 250000 to 500000:
Volume Lx Ly Lz Press
106.012 4.7328 4.7328 4.7328 1.72724e+06
Loop time of 24.2982 on 1 procs for 500000 steps with 14 atoms
