units 		metal
dimension 	3
boundary 	p p p
atom_style 	atomic

#--------------Create Atom----------------------------

read_data	data.CuNi4
  orthogonal box = (-0.02 -0.02 -0.02) to (13.82 13.82 13.82)
  reading atoms ...
  172 atoms
  reading velocities ...
  172 velocities

#---------------Define Interatomic Potential----------

pair_style eam/alloy
pair_coeff * * CuNi.eam.alloy Ni Cu
Reading potential file CuNi.eam.alloy with DATE: 2014-07-11
neighbor .05 bin
neigh_modify delay 10 check yes

#---------------Define Settings--------------

#---------------Specify Volume------------------------

change_box all x scale 1.02 y scale 1.02 z scale 1.02
  orthogonal box = (-0.1584 -0.02 -0.02) to (13.9584 13.82 13.82)
  orthogonal box = (-0.1584 -0.1584 -0.02) to (13.9584 13.9584 13.82)
  orthogonal box = (-0.1584 -0.1584 -0.1584) to (13.9584 13.9584 13.9584)

#---------------Run Minimization----------------------

reset_timestep 0
timestep 0.0001
thermo          100
thermo_style    custom step temp pe etotal press lx ly lz

min_style cg # use conjugate gradient method
minimize 1.0e-4 1.0e-6 100 100000
  update every 1 steps, delay 0 steps, check yes
Step Temp PotEng TotEng Press Lx Ly Lz
0            0    21237.562    21237.562      3704798      14.1168      14.1168      14.1168
Loop time of 0.0529606 on 1 procs for 97 steps with 172 atoms

Minimization stats:
  Stopping criterion = energy tolerance
  Energy initial, next-to-last, final =
  Force two-norm initial, final = 11424.4 0.658947
  Force max component initial, final = 1713.56 0.154195
  Final line search alpha, max atom move = 0.41687 0.0642793
  Iterations, force evaluations = 97 118

reset_timestep 0

#------ Make variables which I can use to check the pressure and temperature--------
compute         my_temp all temp
compute         mypress all pressure my_temp
variable        glpress equal "c_mypress"

fix             avepress all ave/time 1 100 100 c_mypress mode scalar ave one start 1000 #file ave.press
variable        presssq equal "v_glpress * v_glpress"
fix             avepresssq all ave/time 1 100 100 v_presssq mode scalar ave one start 1000 #file ave.presssq
variable        variance equal  "f_avepresssq - f_avepress*f_avepress"

#---------------SPECIFYING ENSEMBLE----------------------
fix 1 all nvt temp 1000 1000 1.0

#----------------Run Simulation------------------------
# Do a short run to have data to average.
thermo          100
thermo_style    custom step temp pe etotal press lx ly lz v_variance

run 4000
Step Temp PotEng TotEng Press Lx Ly Lz v_variance
0            0     -594.368     -594.368   -82779.332      14.1168      14.1168      14.1168            0
Averages over the last 21 of 41 rows, steps 2000 to 4000:
Temp PotEng TotEng Press Lx Ly Lz v_variance
14.0066 -594.661 -594.351 -84151.7 14.1168 14.1168 14.1168 499.378
Loop time of 1.06254 on 1 procs for 4000 steps with 172 atoms

# Begin lopping until the variance in the pressure is below a given value

variable        loopNum loop 1000

label           loop
run 2000
Step Temp PotEng TotEng Press Lx Ly Lz v_variance
4000    22.000789   -594.82129     -594.335   -84337.271      14.1168      14.1168      14.1168    1145.8131
Averages over the last 11 of 21 rows, steps 5000 to 6000:
Temp PotEng TotEng Press Lx Ly Lz v_variance
38.7007 -595.148 -594.293 -83602.7 14.1168 14.1168 14.1168 1078.82
Loop time of 0.536949 on 1 procs for 2000 steps with 172 atoms

next loopNum
jump SELF loop
print 'continue'
continue

unfix		 avepress
unfix		 avepresssq
thermo 100
thermo_style custom step vol lx ly lz press
reset_timestep 0
shell echo 960 > loopNum4.txt
run 		500000
Step Volume Lx Ly Lz Press
0     2813.253      14.1168      14.1168      14.1168   -83875.499
Averages over the last 2501 of 5001 rows, steps 250000 to 500000:
Volume Lx Ly Lz Press
2813.25 14.1168 14.1168 14.1168 -78242.4
Loop time of 134.165 on 1 procs for 500000 steps with 172 atoms
