units 		metal
dimension 	3
boundary 	p p p
atom_style 	atomic

#--------------Create Atom----------------------------

read_data	data.CuNi5
  orthogonal box = (-0.02 -0.02 -0.02) to (18.42 18.42 18.42)
  reading atoms ...
  365 atoms
  reading velocities ...
  365 velocities

#---------------Define Interatomic Potential----------

pair_style eam/alloy
pair_coeff * * CuNi.eam.alloy Ni Cu
Reading potential file CuNi.eam.alloy with DATE: 2014-07-11
neighbor .05 bin
neigh_modify delay 10 check yes

#---------------Define Settings--------------

#---------------Specify Volume------------------------

change_box all x scale 1.02 y scale 1.02 z scale 1.02
  orthogonal box = (-0.2044 -0.02 -0.02) to (18.6044 18.42 18.42)
  orthogonal box = (-0.2044 -0.2044 -0.02) to (18.6044 18.6044 18.42)
  orthogonal box = (-0.2044 -0.2044 -0.2044) to (18.6044 18.6044 18.6044)

#---------------Run Minimization----------------------

reset_timestep 0
timestep 0.0001
thermo          100
thermo_style    custom step temp pe etotal press lx ly lz

min_style cg # use conjugate gradient method
minimize 1.0e-4 1.0e-6 100 100000
  update every 1 steps, delay 0 steps, check yes
Step Temp PotEng TotEng Press Lx Ly Lz
0            0    24168.489    24168.489    2179072.9      18.8088      18.8088      18.8088
Loop time of 0.0848944 on 1 procs for 100 steps with 365 atoms

Minimization stats:
  Stopping criterion = max iterations
  Energy initial, next-to-last, final =
  Force two-norm initial, final = 9897.01 2.34063
  Force max component initial, final = 1231 0.76812
  Final line search alpha, max atom move = 0.126353 0.0970542
  Iterations, force evaluations = 100 100

reset_timestep 0

#------ Make variables which I can use to check the pressure and temperature--------
compute         my_temp all temp
compute         mypress all pressure my_temp
variable        glpress equal "c_mypress"

fix             avepress all ave/time 1 100 100 c_mypress mode scalar ave one start 1000 #file ave.press
variable        presssq equal "v_glpress * v_glpress"
fix             avepresssq all ave/time 1 100 100 v_presssq mode scalar ave one start 1000 #file ave.presssq
variable        variance equal  "f_avepresssq - f_avepress*f_avepress"

#---------------SPECIFYING ENSEMBLE----------------------
fix 1 all nvt temp 1000 1000 1.0

#----------------Run Simulation------------------------
# Do a short run to have data to average.
thermo          100
thermo_style    custom step temp pe etotal press lx ly lz v_variance

run 4000
Step Temp PotEng TotEng Press Lx Ly Lz v_variance
0            0   -1258.9688   -1258.9688   -41601.625      18.8088      18.8088      18.8088            0
Averages over the last 21 of 41 rows, steps 2000 to 4000:
Temp PotEng TotEng Press Lx Ly Lz v_variance
159.044 -1266.05 -1258.57 -3710.34 18.8088 18.8088 18.8088 183250
Loop time of 2.28983 on 1 procs for 4000 steps with 365 atoms

# Begin lopping until the variance in the pressure is below a given value

variable        loopNum loop 1000

label           loop
run 2000
Step Temp PotEng TotEng Press Lx Ly Lz v_variance
4000    171.58641   -1266.3725   -1258.2993    3506.0688      18.8088      18.8088      18.8088    18323.863
Averages over the last 11 of 21 rows, steps 5000 to 6000:
Temp PotEng TotEng Press Lx Ly Lz v_variance
216.991 -1268.08 -1257.88 -18783.7 18.8088 18.8088 18.8088 150655
Loop time of 1.17099 on 1 procs for 2000 steps with 365 atoms

next loopNum
jump SELF loop
run 2000
Step Temp PotEng TotEng Press Lx Ly Lz v_variance
6000    220.55471   -1268.0875   -1257.7102   -23998.617      18.8088      18.8088      18.8088    32273.544
Averages over the last 11 of 21 rows, steps 7000 to 8000:
Temp PotEng TotEng Press Lx Ly Lz v_variance
243.336 -1268.57 -1257.12 -20444.9 18.8088 18.8088 18.8088 61052.5
Loop time of 1.14125 on 1 procs for 2000 steps with 365 atoms

next loopNum
jump SELF loop
run 2000
Step Temp PotEng TotEng Press Lx Ly Lz v_variance
8000    253.80121   -1268.8402   -1256.8987    -15984.99      18.8088      18.8088      18.8088    62222.014
Averages over the last 11 of 21 rows, steps 9000 to 10000:
Temp PotEng TotEng Press Lx Ly Lz v_variance
251.375 -1268.01 -1256.18 -6995.6 18.8088 18.8088 18.8088 8073.48
Loop time of 1.15289 on 1 procs for 2000 steps with 365 atoms

next loopNum
jump SELF loop
run 2000
Step Temp PotEng TotEng Press Lx Ly Lz v_variance
10000     260.4709   -1268.1862   -1255.9309   -7900.5179      18.8088      18.8088      18.8088     1174.626
Averages over the last 11 of 21 rows, steps 11000 to 12000:
Temp PotEng TotEng Press Lx Ly Lz v_variance
285.08 -1268.53 -1255.11 -14960.8 18.8088 18.8088 18.8088 7486.13
Loop time of 1.14464 on 1 procs for 2000 steps with 365 atoms

next loopNum
jump SELF loop
run 2000
Step Temp PotEng TotEng Press Lx Ly Lz v_variance
12000    317.30821   -1269.7442   -1254.8146   -15412.061      18.8088      18.8088      18.8088     3971.777
Averages over the last 11 of 21 rows, steps 13000 to 14000:
Temp PotEng TotEng Press Lx Ly Lz v_variance
312.506 -1268.54 -1253.83 -7430.01 18.8088 18.8088 18.8088 86283
Loop time of 1.1606 on 1 procs for 2000 steps with 365 atoms

next loopNum
jump SELF loop
run 2000
Step Temp PotEng TotEng Press Lx Ly Lz v_variance
14000    314.67677   -1268.3146   -1253.5088   -3144.5413      18.8088      18.8088      18.8088    19886.685
Averages over the last 11 of 21 rows, steps 15000 to 16000:
Temp PotEng TotEng Press Lx Ly Lz v_variance
329.052 -1267.95 -1252.47 -9193.39 18.8088 18.8088 18.8088 47512
Loop time of 1.14948 on 1 procs for 2000 steps with 365 atoms

next loopNum
jump SELF loop
run 2000
Step Temp PotEng TotEng Press Lx Ly Lz v_variance
16000    335.21211   -1267.8944   -1252.1224   -13241.863      18.8088      18.8088      18.8088    85214.926
Averages over the last 11 of 21 rows, steps 17000 to 18000:
Temp PotEng TotEng Press Lx Ly Lz v_variance
347.741 -1267.38 -1251.01 -16425.6 18.8088 18.8088 18.8088 25327.2
Loop time of 1.14061 on 1 procs for 2000 steps with 365 atoms

next loopNum
jump SELF loop
run 2000
Step Temp PotEng TotEng Press Lx Ly Lz v_variance
18000    340.10402   -1266.6466   -1250.6445   -13958.493      18.8088      18.8088      18.8088    11534.781
Averages over the last 11 of 21 rows, steps 19000 to 20000:
Temp PotEng TotEng Press Lx Ly Lz v_variance
370.117 -1266.87 -1249.45 -7166.08 18.8088 18.8088 18.8088 19424.6
Loop time of 1.14351 on 1 procs for 2000 steps with 365 atoms

next loopNum
jump SELF loop
run 2000
Step Temp PotEng TotEng Press Lx Ly Lz v_variance
20000    368.16876   -1266.3735   -1249.0509   -7791.5667      18.8088      18.8088      18.8088    31920.633
Averages over the last 11 of 21 rows, steps 21000 to 22000:
Temp PotEng TotEng Press Lx Ly Lz v_variance
389.065 -1266.09 -1247.78 -13858.9 18.8088 18.8088 18.8088 7342.26
Loop time of 1.14019 on 1 procs for 2000 steps with 365 atoms

next loopNum
jump SELF loop
run 2000
Step Temp PotEng TotEng Press Lx Ly Lz v_variance
22000    396.21935   -1265.9973   -1247.3549   -13597.935      18.8088      18.8088      18.8088    1442.6024
Averages over the last 11 of 21 rows, steps 23000 to 24000:
Temp PotEng TotEng Press Lx Ly Lz v_variance
417.005 -1265.62 -1246 -5857.8 18.8088 18.8088 18.8088 93068.6
Loop time of 1.14706 on 1 procs for 2000 steps with 365 atoms

next loopNum
jump SELF loop
run 2000
Step Temp PotEng TotEng Press Lx Ly Lz v_variance
24000    405.03727   -1264.5995   -1245.5422   -1446.0016      18.8088      18.8088      18.8088    22315.482
Averages over the last 11 of 21 rows, steps 25000 to 26000:
Temp PotEng TotEng Press Lx Ly Lz v_variance
434.024 -1264.54 -1244.12 -7429.38 18.8088 18.8088 18.8088 98411
Loop time of 1.15286 on 1 procs for 2000 steps with 365 atoms

next loopNum
jump SELF loop
run 2000
Step Temp PotEng TotEng Press Lx Ly Lz v_variance
26000    432.99163   -1264.0114   -1243.6389   -13152.963      18.8088      18.8088      18.8088    34287.773
Averages over the last 11 of 21 rows, steps 27000 to 28000:
Temp PotEng TotEng Press Lx Ly Lz v_variance
455.558 -1263.62 -1242.19 -16030.6 18.8088 18.8088 18.8088 16980.8
Loop time of 1.13811 on 1 procs for 2000 steps with 365 atoms

next loopNum
jump SELF loop
print 'continue'
continue

unfix		 avepress
unfix		 avepresssq
thermo 100
thermo_style custom step vol lx ly lz press
reset_timestep 0
shell echo 122 > loopNum5.txt
run 		500000
Step Volume Lx Ly Lz Press
0    6654.0072      18.8088      18.8088      18.8088   -15484.872
Averages over the last 2501 of 5001 rows, steps 250000 to 500000:
Volume Lx Ly Lz Press
6654.01 18.8088 18.8088 18.8088 -16644.4
Loop time of 276.236 on 1 procs for 500000 steps with 365 atoms
