units 		metal
dimension 	3
boundary 	p p p
atom_style 	atomic

#--------------Create Atom----------------------------

read_data	data.CuNi6
  orthogonal box = (-0.02 -0.02 -0.02) to (23.02 23.02 23.02)
  reading atoms ...
  666 atoms
  reading velocities ...
  666 velocities

#---------------Define Interatomic Potential----------

pair_style eam/alloy
pair_coeff * * CuNi.eam.alloy Ni Cu
Reading potential file CuNi.eam.alloy with DATE: 2014-07-11
neighbor .05 bin
neigh_modify delay 10 check yes

#---------------Define Settings--------------

#---------------Specify Volume------------------------

change_box all x scale 1.012 y scale 1.012 z scale 1.012
  orthogonal box = (-0.15824 -0.02 -0.02) to (23.1582 23.02 23.02)
  orthogonal box = (-0.15824 -0.15824 -0.02) to (23.1582 23.1582 23.02)
  orthogonal box = (-0.15824 -0.15824 -0.15824) to (23.1582 23.1582 23.1582)

#---------------Run Minimization----------------------

reset_timestep 0
timestep 0.0001
thermo          100
thermo_style    custom step temp pe etotal press lx ly lz

min_style cg # use conjugate gradient method
minimize 1.0e-4 1.0e-6 100 100000
  update every 1 steps, delay 0 steps, check yes
Step Temp PotEng TotEng Press Lx Ly Lz
0            0    46149.128    46149.128    1661960.2     23.31648     23.31648     23.31648
Loop time of 0.15103 on 1 procs for 100 steps with 666 atoms

Minimization stats:
  Stopping criterion = max iterations
  Energy initial, next-to-last, final =
  Force two-norm initial, final = 15658 3.9192
  Force max component initial, final = 1661.74 0.746824
  Final line search alpha, max atom move = 0.129092 0.0964091
  Iterations, force evaluations = 100 100

reset_timestep 0

#------ Make variables which I can use to check the pressure and temperature--------
compute         my_temp all temp
compute         mypress all pressure my_temp
variable        glpress equal "c_mypress"

fix             avepress all ave/time 1 100 100 c_mypress mode scalar ave one start 1000 #file ave.press
variable        presssq equal "v_glpress * v_glpress"
fix             avepresssq all ave/time 1 100 100 v_presssq mode scalar ave one start 1000 #file ave.presssq
variable        variance equal  "f_avepresssq - f_avepress*f_avepress"

#---------------SPECIFYING ENSEMBLE----------------------
fix 1 all nvt temp 1000 1000 1.0

#----------------Run Simulation------------------------
# Do a short run to have data to average.
thermo          100
thermo_style    custom step temp pe etotal press lx ly lz v_variance

run 4000
Step Temp PotEng TotEng Press Lx Ly Lz v_variance
0            0    -2163.454    -2163.454   -99949.854     23.31648     23.31648     23.31648            0
Averages over the last 21 of 41 rows, steps 2000 to 4000:
Temp PotEng TotEng Press Lx Ly Lz v_variance
453.213 -2200.86 -2161.9 -53789.5 23.3165 23.3165 23.3165 260698
Loop time of 3.80941 on 1 procs for 4000 steps with 666 atoms

# Begin lopping until the variance in the pressure is below a given value

variable        loopNum loop 1000

label           loop
run 2000
Step Temp PotEng TotEng Press Lx Ly Lz v_variance
4000    525.64178   -2206.0908   -2160.9077   -40119.226     23.31648     23.31648     23.31648    44223.051
Averages over the last 11 of 21 rows, steps 5000 to 6000:
Temp PotEng TotEng Press Lx Ly Lz v_variance
620.995 -2212.79 -2159.41 -42435.2 23.3165 23.3165 23.3165 25477.4
Loop time of 2.01737 on 1 procs for 2000 steps with 666 atoms

next loopNum
jump SELF loop
run 2000
Step Temp PotEng TotEng Press Lx Ly Lz v_variance
6000    633.91522   -2213.3367   -2158.8466   -44660.432     23.31648     23.31648     23.31648    48352.077
Averages over the last 11 of 21 rows, steps 7000 to 8000:
Temp PotEng TotEng Press Lx Ly Lz v_variance
677.471 -2215.17 -2156.94 -44978 23.3165 23.3165 23.3165 4101.49
Loop time of 2.03731 on 1 procs for 2000 steps with 666 atoms

next loopNum
jump SELF loop
run 2000
Step Temp PotEng TotEng Press Lx Ly Lz v_variance
8000    699.68522   -2216.3911   -2156.2476   -45846.348     23.31648     23.31648     23.31648    17026.625
Averages over the last 11 of 21 rows, steps 9000 to 10000:
Temp PotEng TotEng Press Lx Ly Lz v_variance
703.7 -2214.56 -2154.07 -47273.5 23.3165 23.3165 23.3165 4927.84
Loop time of 2.0199 on 1 procs for 2000 steps with 666 atoms

next loopNum
jump SELF loop
print 'continue'
continue

unfix		 avepress
unfix		 avepresssq
thermo 100
thermo_style custom step vol lx ly lz press
reset_timestep 0
shell echo 20 > loopNum6.txt
run 		500000
Step Volume Lx Ly Lz Press
0    12676.196     23.31648     23.31648     23.31648    -46182.95
Averages over the last 406 of 812 rows, steps 40600 to 81100:
Volume Lx Ly Lz Press
12676.2 23.3165 23.3165 23.3165 -30970.1
   81200    12676.196
